casefile/input/WECC240_v03_Mod_NewMVA_month_5_day_10_hour_5.raw
@!IC, SBASE,REV,XFRRAT,NXFRAT,BASFRQ
0,   100.00, 34,     0,     1, 60.00     / PSS(R)E-34.4    WED, APR 22 2020  12:17
WECC 240 SYSTEM, V0.2,  MODIFIED BY NREL, INTERNAL USE ONLY
CONTACT: HAOYU.YUAN@NREL.GOV
GENERAL, THRSHZ=0.0001, PQBRAK=0.7, BLOWUP=5.0
GAUSS, ITMX=100, ACCP=1.6, ACCQ=1.6, ACCM=1.0, TOL=0.0001
NEWTON, ITMXN=300, ACCN=1.0, TOLN=0.1, VCTOLQ=0.1, VCTOLV=0.00001, DVLIM=0.99, NDVFCT=0.99
ADJUST, ADJTHR=0.005, ACCTAP=1.0, TAPLIM=0.05, SWVBND=100.0, MXTPSS=99, MXSWIM=10
TYSL, ITMXTY=20, ACCTY=1.0, TOLTY=0.00001
SOLVER, FNSL, ACTAPS=0, AREAIN=0, PHSHFT=0, DCTAPS=1, SWSHNT=1, FLATST=2, VARLIM=0, NONDIV=0
RATING, 1, "RATE1 ", "RATING SET 1                    "
RATING, 2, "RATE2 ", "RATING SET 2                    "
RATING, 3, "RATE3 ", "RATING SET 3                    "
RATING, 4, "RATE4 ", "RATING SET 4                    "
RATING, 5, "RATE5 ", "RATING SET 5                    "
RATING, 6, "RATE6 ", "RATING SET 6                    "
RATING, 7, "RATE7 ", "RATING SET 7                    "
RATING, 8, "RATE8 ", "RATING SET 8                    "
RATING, 9, "RATE9 ", "RATING SET 9                    "
RATING,10, "RATE10", "RATING SET 10                   "
RATING,11, "RATE11", "RATING SET 11                   "
RATING,12, "RATE12", "RATING SET 12                   "
0 / END OF SYSTEM-WIDE DATA, BEGIN BUS DATA
@!   I,'NAME        ', BASKV, IDE,AREA,ZONE,OWNER, VM,        VA,    NVHI,   NVLO,   EVHI,   EVLO
  1001,'FOURCORN    ', 500.0000,1,   1,   3,   1,1.02841,  21.5465,1.10000,0.90000,1.10000,0.90000
  1002,'FOURCORN    ', 345.0000,1,   1,   3,   1,1.03868,  25.6325,1.10000,0.90000,1.10000,0.90000
  1003,'FOURCORN    ', 230.0000,1,   1,  10,   1,1.04658,  22.9752,1.10000,0.90000,1.10000,0.90000
  1004,'SAN JUAN    ', 345.0000,1,   1,  10,   1,1.07664,  33.4225,1.10000,0.90000,1.10000,0.90000
  1032,'FCNGN4CC    ',  20.0000,2,   1,  10,   1,1.03958,  25.8152,1.10000,0.90000,1.10000,0.90000
  1034,'SJUAN G4    ',  20.0000,2,   1,  10,   1,1.08232,  33.9723,1.10000,0.90000,1.10000,0.90000
  1101,'CORONADO    ', 500.0000,1,   1,   3,   1,1.01665,   6.7528,1.10000,0.90000,1.10000,0.90000
  1102,'CHOLLA      ', 345.0000,1,   1,   3,   1,1.01581,  15.1926,1.10000,0.90000,1.10000,0.90000
  1131,'CORONADO    ',  20.0000,2,   1,   3,   1,1.01811,   7.0863,1.10000,0.90000,1.10000,0.90000
  1201,'MOENKOPI    ', 500.0000,1,   1,   3,   1,0.98353,   0.8413,1.10000,0.90000,1.10000,0.90000
  1202,'NAVAJO      ', 500.0000,1,   1,   3,   1,1.00012,   0.0443,1.10000,0.90000,1.10000,0.90000
  1232,'NAVAJO 2    ',  20.0000,3,   1,   3,   1,1.00000,   0.0000,1.10000,0.90000,1.10000,0.90000
  1301,'MEAD        ', 500.0000,1,   1,   3,   1,1.00475,  -4.3580,1.10000,0.90000,1.10000,0.90000
  1302,'H ALLEN     ', 500.0000,1,   1,   9,   1,1.01048,   2.8480,1.10000,0.90000,1.10000,0.90000
  1303,'H ALLEN     ', 345.0000,1,   1,   9,   1,1.00500,   6.2866,1.10000,0.90000,1.10000,0.90000
  1331,'HOOVER      ',  20.0000,2,   1,   3,   1,1.00939,  -4.1251,1.10000,0.90000,1.10000,0.90000
  1333,'H ALLEN     ',  20.0000,2,   1,   9,   1,1.00693,   7.0301,1.10000,0.90000,1.10000,0.90000
  1401,'PALOVRDE    ', 500.0000,1,   1,   3,   1,0.95382,  -3.1322,1.10000,0.90000,1.10000,0.90000
  1402,'WESTWING    ', 500.0000,1,   1,   3,   1,0.97574,  -6.4065,1.10000,0.90000,1.10000,0.90000
  1403,'PARKER      ', 230.0000,1,   1,   3,   1,0.92404,  -4.0194,1.10000,0.90000,1.10000,0.90000
  1431,'PALOVRD2    ',  20.0000,2,   1,   3,   1,0.96271,  -2.1751,1.10000,0.90000,1.10000,0.90000
  2000,'MEXICO      ', 230.0000,1,   4,   7,   1,0.09589, 109.7969,1.10000,0.90000,1.10000,0.90000
  2030,'MEXICO      ',  20.0000,2,   4,   7,   1,0.10056, 111.6572,1.10000,0.90000,1.10000,0.90000
  2100,'IMPERIAL    ', 230.0000,1,   2,   2,   1,0.76204,  -8.5847,1.10000,0.90000,1.10000,0.90000
  2130,'IMPERIAL    ',  20.0000,2,   2,   2,   1,0.76469,  -8.2577,1.10000,0.90000,1.10000,0.90000
  2201,'MIGUEL      ', 500.0000,1,   2,   2,   1,0.08359,-100.4918,1.10000,0.90000,1.10000,0.90000
  2202,'MIGUEL      ', 230.0000,1,   2,   2,   1,0.08530,-118.1964,1.10000,0.90000,1.10000,0.90000
  2203,'MISSION     ', 230.0000,1,   2,   2,   1,0.00712,-151.1033,1.10000,0.90000,1.10000,0.90000
  2233,'MISSION     ',  20.0000,2,   2,   2,   1,0.00712,-151.1033,1.10000,0.90000,1.10000,0.90000
  2301,'IMPRLVLY    ', 500.0000,1,   2,   2,   1,0.18465, -23.6979,1.10000,0.90000,1.10000,0.90000
  2302,'IMPRLVLY    ', 230.0000,1,   2,   2,   1,0.15614, -26.2660,1.10000,0.90000,1.10000,0.90000
  2332,'IMPRLVLY    ',  20.0000,2,   2,   2,   1,0.15614, -26.2660,1.10000,0.90000,1.10000,0.90000
  2400,'DEVERS      ', 500.0000,1,   2,   2,   1,0.76548, -13.8403,1.10000,0.90000,1.10000,0.90000
  2401,'LUGO        ', 500.0000,1,   2,   2,   1,0.67117,  -6.2955,1.10000,0.90000,1.10000,0.90000
  2402,'MIRALOMA    ', 500.0000,1,   2,   2,   1,0.65515, -15.1312,1.10000,0.90000,1.10000,0.90000
  2403,'VALLEY      ', 500.0000,1,   2,   2,   1,0.70836, -18.1806,1.10000,0.90000,1.10000,0.90000
  2404,'VINCENT     ', 500.0000,1,   2,   2,   1,0.52739,  18.0076,1.10000,0.90000,1.10000,0.90000
  2405,'SYLMAR S    ', 230.0000,1,   2,   2,   1,0.85485, -20.0732,1.10000,0.90000,1.10000,0.90000
  2406,'EAGLROCK    ', 230.0000,1,   2,   2,   1,0.87866, -19.1184,1.10000,0.90000,1.10000,0.90000
  2407,'LITEHIPE    ', 230.0000,1,   2,   2,   1,0.92430, -19.5842,1.10000,0.90000,1.10000,0.90000
  2408,'MESA CAL    ', 230.0000,1,   2,   2,   1,0.94623, -11.9578,1.10000,0.90000,1.10000,0.90000
  2409,'MIRALOMA    ', 230.0000,1,   2,   2,   1,0.65359, -19.4241,1.10000,0.90000,1.10000,0.90000
  2410,'PARDEE      ', 230.0000,1,   2,   2,   1,0.78333, -20.5104,1.10000,0.90000,1.10000,0.90000
  2411,'VINCENT     ', 230.0000,1,   2,   2,   1,0.58531,   4.9763,1.10000,0.90000,1.10000,0.90000
  2431,'LUGO        ',  20.0000,2,   2,   2,   1,0.67117,  -6.2955,1.10000,0.90000,1.10000,0.90000
  2434,'VINCENT     ',  20.0000,2,   2,   2,   1,0.58531,   4.9763,1.10000,0.90000,1.10000,0.90000
  2438,'MESA CAL    ',  20.0000,2,   2,   2,   1,0.96490, -11.1034,1.10000,0.90000,1.10000,0.90000
  2439,'MIRALOMA    ',  20.0000,2,   2,   2,   1,0.65359, -19.4241,1.10000,0.90000,1.10000,0.90000
  2501,'SERRANO     ', 500.0000,1,   2,   2,   1,0.64738, -18.0847,1.10000,0.90000,1.10000,0.90000
  2502,'SERRANO     ', 230.0000,1,   2,   2,   1,0.63346, -20.7230,1.10000,0.90000,1.10000,0.90000
  2503,'S.ONOFRE    ', 230.0000,1,   2,   2,   1,0.33596, -24.0412,1.10000,0.90000,1.10000,0.90000
  2533,'S.ONOFRE    ',  20.0000,2,   2,   2,   1,0.33596, -24.0412,1.10000,0.90000,1.10000,0.90000
  2600,'ADELANTO    ', 500.0000,1,   2,   2,   1,0.78844,  -6.4959,1.10000,0.90000,1.10000,0.90000
  2601,'RINALDI     ', 500.0000,1,   2,   2,   1,0.83181, -11.9048,1.10000,0.90000,1.10000,0.90000
  2602,'STA E       ', 500.0000,1,   2,   2,   1,0.85597, -20.8321,1.10000,0.90000,1.10000,0.90000
  2603,'VICTORVL    ', 500.0000,1,   2,   2,   1,0.78158,  -6.5303,1.10000,0.90000,1.10000,0.90000
  2604,'INTERMT     ', 345.0000,1,   2,   2,   1,1.03000,  74.1984,1.10000,0.90000,1.10000,0.90000
  2605,'STA B1      ', 287.0000,1,   2,   2,   1,0.86886, -28.8556,1.10000,0.90000,1.10000,0.90000
  2606,'STA B2      ', 287.0000,1,   2,   2,   1,0.86886, -28.8556,1.10000,0.90000,1.10000,0.90000
  2607,'VICTORVL    ', 287.0000,1,   2,   2,   1,0.83231, -13.8384,1.10000,0.90000,1.10000,0.90000
  2608,'CASTAIC     ', 230.0000,1,   2,   2,   1,0.97255, -20.6545,1.10000,0.90000,1.10000,0.90000
  2609,'GLENDAL     ', 230.0000,1,   2,   2,   1,0.87866, -29.3247,1.10000,0.90000,1.10000,0.90000
  2610,'HAYNES      ', 230.0000,1,   2,   2,   1,0.88246, -33.1683,1.10000,0.90000,1.10000,0.90000
  2611,'OLIVE       ', 230.0000,1,   2,   2,   1,0.88707, -21.7355,1.10000,0.90000,1.10000,0.90000
  2612,'RINALDI     ', 230.0000,1,   2,   2,   1,0.87554, -21.3313,1.10000,0.90000,1.10000,0.90000
  2613,'RIVER       ', 230.0000,1,   2,   2,   1,0.88111, -32.6464,1.10000,0.90000,1.10000,0.90000
  2614,'STA BLD     ', 230.0000,1,   2,   2,   1,0.87690, -32.7287,1.10000,0.90000,1.10000,0.90000
  2615,'STA E       ', 230.0000,1,   2,   2,   1,0.87538, -26.7860,1.10000,0.90000,1.10000,0.90000
  2616,'STA F       ', 230.0000,1,   2,   2,   1,0.87995, -32.6045,1.10000,0.90000,1.10000,0.90000
  2617,'STA G       ', 230.0000,1,   2,   2,   1,0.87963, -30.3860,1.10000,0.90000,1.10000,0.90000
  2618,'STA J       ', 230.0000,1,   2,   2,   1,0.87770, -23.7563,1.10000,0.90000,1.10000,0.90000
  2619,'SYLMARLA    ', 230.0000,1,   2,   2,   1,0.86712, -19.2850,1.10000,0.90000,1.10000,0.90000
  2620,'VALLEY      ', 230.0000,1,   2,   2,   1,0.87564, -24.1612,1.10000,0.90000,1.10000,0.90000
  2621,'STA B       ', 138.0000,1,   2,   2,   1,0.87111, -31.8587,1.10000,0.90000,1.10000,0.90000
  2630,'HAYNES3G    ',  20.0000,2,   2,   2,   1,0.88246, -33.1683,1.10000,0.90000,1.10000,0.90000
  2631,'OLIVE       ',  20.0000,2,   2,   2,   1,0.88707, -21.7355,1.10000,0.90000,1.10000,0.90000
  2634,'INTERM1G    ',  20.0000,2,   2,   2,   1,1.02752,  74.2860,1.10000,0.90000,1.10000,0.90000
  2637,'OWENS G     ',  20.0000,2,   2,   2,   1,0.87575, -21.3078,1.10000,0.90000,1.10000,0.90000
  2638,'CASTAI4G    ',  20.0000,2,   2,   2,   1,0.97306, -20.4914,1.10000,0.90000,1.10000,0.90000
  2901,'ELDORADO    ', 500.0000,1,   2,   2,   1,0.87037,  -2.1782,1.10000,0.90000,1.10000,0.90000
  2902,'MOHAVE      ', 500.0000,1,   2,   2,   1,0.82890,  -3.1613,1.10000,0.90000,1.10000,0.90000
  3101,'EMBRCDRD    ', 230.0000,1,   2,   2,   1,0.99601,  84.5827,1.10000,0.90000,1.10000,0.90000
  3102,'MARTIN      ', 230.0000,1,   2,   2,   1,0.99496,  85.2429,1.10000,0.90000,1.10000,0.90000
  3103,'SANMATEO    ', 230.0000,1,   2,   2,   1,1.00136,  86.5816,1.10000,0.90000,1.10000,0.90000
  3104,'MARTIN      ', 115.0000,1,   2,   2,   1,0.99824,  85.5976,1.10000,0.90000,1.10000,0.90000
  3105,'POTRERO     ', 115.0000,1,   2,   2,   1,1.00000,  88.6282,1.10000,0.90000,1.10000,0.90000
  3133,'SANMATEO    ',  20.0000,2,   2,   2,   1,1.00136,  86.5816,1.10000,0.90000,1.10000,0.90000
  3135,'POTRERO     ',  20.0000,2,   2,   2,   1,0.99983,  88.7151,1.10000,0.90000,1.10000,0.90000
  3201,'C.COSTA     ', 230.0000,1,   2,   2,   1,1.00065,  88.7424,1.10000,0.90000,1.10000,0.90000
  3202,'MORAGA      ', 230.0000,1,   2,   2,   1,1.00101,  88.6394,1.10000,0.90000,1.10000,0.90000
  3203,'NEWARK      ', 230.0000,1,   2,   2,   1,0.99444,  87.3908,1.10000,0.90000,1.10000,0.90000
  3204,'PITSBURG    ', 230.0000,1,   2,   2,   1,1.01000,  89.4506,1.10000,0.90000,1.10000,0.90000
  3205,'SOBRANTE    ', 230.0000,1,   2,   2,   1,1.00078,  90.5720,1.10000,0.90000,1.10000,0.90000
  3234,'PITSBURG    ',  20.0000,2,   2,   2,   1,1.01209,  89.7952,1.10000,0.90000,1.10000,0.90000
  3301,'METCALF     ', 500.0000,1,   2,   2,   1,0.92311,  85.2512,1.10000,0.90000,1.10000,0.90000
  3302,'JEFFERSN    ', 230.0000,1,   2,   2,   1,0.97132,  82.9440,1.10000,0.90000,1.10000,0.90000
  3303,'METCALF     ', 230.0000,1,   2,   2,   1,0.94472,  83.4561,1.10000,0.90000,1.10000,0.90000
  3304,'MONTAVIS    ', 230.0000,1,   2,   2,   1,0.95696,  82.6726,1.10000,0.90000,1.10000,0.90000
  3305,'RAVENSWD    ', 230.0000,1,   2,   2,   1,1.00191,  86.7063,1.10000,0.90000,1.10000,0.90000
  3333,'METCALF     ',  20.0000,2,   2,   2,   1,0.94472,  83.4561,1.10000,0.90000,1.10000,0.90000
  3401,'GREGG       ', 230.0000,1,   2,   2,   1,0.81385,  67.6500,1.10000,0.90000,1.10000,0.90000
  3402,'HELMS PP    ', 230.0000,1,   2,   2,   1,0.81564,  67.6363,1.10000,0.90000,1.10000,0.90000
  3403,'MC CALL     ', 230.0000,1,   2,   2,   1,0.74014,  62.6477,1.10000,0.90000,1.10000,0.90000
  3404,'PANOCHE     ', 230.0000,1,   2,   2,   1,0.76336,  67.5805,1.10000,0.90000,1.10000,0.90000
  3405,'WILSON      ', 230.0000,1,   2,   2,   1,0.87669,  72.0535,1.10000,0.90000,1.10000,0.90000
  3432,'HELMS PP    ',  20.0000,2,   2,   2,   1,0.81564,  67.6363,1.10000,0.90000,1.10000,0.90000
  3433,'MC CALL     ',  20.0000,2,   2,   2,   1,0.74014,  62.6477,1.10000,0.90000,1.10000,0.90000
  3501,'FULTON      ', 230.0000,1,   2,   2,   1,1.00000, 111.8664,1.10000,0.90000,1.10000,0.90000
  3531,'FULTON      ',  20.0000,2,   2,   2,   1,1.00027, 112.4221,1.10000,0.90000,1.10000,0.90000
  3601,'HUMBOLDT    ', 115.0000,1,   2,   2,   1,1.05517, 104.1195,1.10000,0.90000,1.10000,0.90000
  3631,'HUMBOLDT    ',  20.0000,2,   2,   2,   1,1.05508, 104.1377,1.10000,0.90000,1.10000,0.90000
  3701,'SUMMIT      ', 115.0000,1,   1,   9,   1,1.18244,  85.3292,1.10000,0.90000,1.10000,0.90000
  3731,'SUMMIT      ',  20.0000,2,   1,   9,   1,1.18203,  85.3405,1.10000,0.90000,1.10000,0.90000
  3801,'DIABLO      ', 500.0000,1,   2,   2,   1,0.61438,  74.9517,1.10000,0.90000,1.10000,0.90000
  3802,'GATES       ', 500.0000,1,   2,   2,   1,0.59485,  58.6976,1.10000,0.90000,1.10000,0.90000
  3803,'MIDWAY      ', 500.0000,1,   2,   2,   1,0.53071,  43.8637,1.10000,0.90000,1.10000,0.90000
  3804,'GATES       ', 230.0000,1,   2,   2,   1,0.71405,  65.8960,1.10000,0.90000,1.10000,0.90000
  3805,'MIDWAY      ', 230.0000,1,   2,   2,   1,0.54835,  48.8391,1.10000,0.90000,1.10000,0.90000
  3806,'MORROBAY    ', 230.0000,1,   2,   2,   1,0.70858,  78.7809,1.10000,0.90000,1.10000,0.90000
  3831,'DIABLO1     ',  20.0000,2,   2,   2,   1,0.62156,  76.6815,1.10000,0.90000,1.10000,0.90000
  3835,'MIDWAY      ',  20.0000,2,   2,   2,   1,0.54835,  48.8391,1.10000,0.90000,1.10000,0.90000
  3836,'MORROBAY    ',  20.0000,2,   2,   2,   1,0.71199,  79.5695,1.10000,0.90000,1.10000,0.90000
  3891,'GATES1      ', 500.0000,1,   2,   2,   1,0.54418,  16.7294,1.10000,0.90000,1.10000,0.90000
  3892,'MIDWAY1     ', 500.0000,1,   2,   2,   1,0.62004,  69.2786,1.10000,0.90000,1.10000,0.90000
  3893,'MIDWAY2     ', 500.0000,1,   2,   2,   1,0.66502,  -4.4089,1.10000,0.90000,1.10000,0.90000
  3894,'MIDWAY3     ', 500.0000,1,   2,   2,   1,0.62243,  69.6422,1.10000,0.90000,1.10000,0.90000
  3895,'MIDWAY4     ', 500.0000,1,   2,   2,   1,0.66636,  -4.5265,1.10000,0.90000,1.10000,0.90000
  3896,'MIDWAY5     ', 500.0000,1,   2,   2,   1,0.63166,  70.6952,1.10000,0.90000,1.10000,0.90000
  3897,'MIDWAY6     ', 500.0000,1,   2,   2,   1,0.65793,  -3.7394,1.10000,0.90000,1.10000,0.90000
  3901,'LOSBANOS    ', 500.0000,1,   2,   2,   1,0.72058,  73.9219,1.10000,0.90000,1.10000,0.90000
  3902,'MOSSLAND    ', 500.0000,1,   2,   2,   1,0.83113,  79.3932,1.10000,0.90000,1.10000,0.90000
  3903,'TESLA       ', 500.0000,1,   2,   2,   1,0.96225,  91.4103,1.10000,0.90000,1.10000,0.90000
  3904,'VACA-DIX    ', 500.0000,1,   2,   2,   1,0.97603,  92.7640,1.10000,0.90000,1.10000,0.90000
  3905,'TABLE MT    ', 500.0000,1,   2,   2,   1,1.01911,  99.0905,1.10000,0.90000,1.10000,0.90000
  3906,'ROUND MT    ', 500.0000,1,   2,   2,   1,1.06901, 104.3140,1.10000,0.90000,1.10000,0.90000
  3907,'BELLOTA     ', 230.0000,1,   2,   2,   1,0.94213,  78.3917,1.10000,0.90000,1.10000,0.90000
  3908,'BRIGHTON    ', 230.0000,1,   2,   2,   1,1.00328,  81.3101,1.10000,0.90000,1.10000,0.90000
  3909,'COLGATE     ', 230.0000,1,   2,   2,   1,1.06175,  86.2220,1.10000,0.90000,1.10000,0.90000
  3910,'CORTINA     ', 230.0000,1,   2,   2,   1,1.01766,  91.3028,1.10000,0.90000,1.10000,0.90000
  3911,'COTWDPGE    ', 230.0000,1,   2,   2,   1,1.05306, 104.6583,1.10000,0.90000,1.10000,0.90000
  3912,'GLENN       ', 230.0000,1,   2,   2,   1,1.03076,  97.3142,1.10000,0.90000,1.10000,0.90000
  3913,'GOLDHILL    ', 230.0000,1,   2,   2,   1,1.04508,  85.6607,1.10000,0.90000,1.10000,0.90000
  3914,'IGNACIO     ', 230.0000,1,   2,   2,   1,0.98731, 100.1865,1.10000,0.90000,1.10000,0.90000
  3915,'LAKEVILE    ', 230.0000,1,   2,   2,   1,0.98724,  96.8744,1.10000,0.90000,1.10000,0.90000
  3916,'LOGAN CR    ', 230.0000,1,   2,   2,   1,1.02400,  96.0715,1.10000,0.90000,1.10000,0.90000
  3917,'LOSBANOS    ', 230.0000,1,   2,   2,   1,0.74002,  70.1570,1.10000,0.90000,1.10000,0.90000
  3918,'MOSSLAND    ', 230.0000,1,   2,   2,   1,0.86402,  78.3301,1.10000,0.90000,1.10000,0.90000
  3919,'PALERMO     ', 230.0000,1,   2,   2,   1,1.05280,  88.2555,1.10000,0.90000,1.10000,0.90000
  3920,'RIO OSO     ', 230.0000,1,   2,   2,   1,1.06353,  85.5794,1.10000,0.90000,1.10000,0.90000
  3921,'ROUND MT    ', 230.0000,1,   2,   2,   1,1.07000, 112.1600,1.10000,0.90000,1.10000,0.90000
  3922,'TABLE MT    ', 230.0000,1,   2,   2,   1,1.04120,  91.8316,1.10000,0.90000,1.10000,0.90000
  3923,'TESLA       ', 230.0000,2,   2,   2,   1,1.01623,  90.4224,1.10000,0.90000,1.10000,0.90000
  3924,'VACA-DIX    ', 230.0000,1,   2,   2,   1,0.99663,  90.5715,1.10000,0.90000,1.10000,0.90000
  3925,'COTWDPGE    ', 115.0000,1,   2,   2,   1,1.05550, 104.3824,1.10000,0.90000,1.10000,0.90000
  3926,'RIO OSO     ', 115.0000,1,   2,   2,   1,1.12516,  85.1002,1.10000,0.90000,1.10000,0.90000
  3931,'ROUND MT    ',  20.0000,2,   2,   2,   1,1.07035, 112.5698,1.10000,0.90000,1.10000,0.90000
  3932,'MOSSLAND    ',  20.0000,2,   2,   2,   1,0.83113,  79.3932,1.10000,0.90000,1.10000,0.90000
  3933,'TESLA       ',  20.0000,2,   2,   2,   1,1.02000,  91.0172,1.10000,0.90000,1.10000,0.90000
  4001,'MALIN       ', 500.0000,1,   3,  11,   1,1.09674, 106.6186,1.10000,0.90000,1.10000,0.90000
  4002,'SUMMER L    ', 500.0000,1,   3,  11,   1,1.13368, 109.3228,1.10000,0.90000,1.10000,0.90000
  4003,'BURNS       ', 500.0000,1,   3,  11,   1,1.16593, 107.0790,1.10000,0.90000,1.10000,0.90000
  4004,'GRIZZLY     ', 500.0000,1,   3,  11,   1,1.10249, 115.1634,1.10000,0.90000,1.10000,0.90000
  4005,'JOHN DAY    ', 500.0000,1,   3,  11,   1,1.08000, 125.0842,1.10000,0.90000,1.10000,0.90000
  4006,'BIG EDDY    ', 500.0000,1,   3,  11,   1,1.08133, 123.4221,1.10000,0.90000,1.10000,0.90000
  4007,'CELILOCA    ', 500.0000,1,   3,  11,   1,1.08120, 123.3628,1.10000,0.90000,1.10000,0.90000
  4008,'MALIN       ', 345.0000,1,   3,  11,   1,1.12071, 104.0363,1.10000,0.90000,1.10000,0.90000
  4009,'BIG EDDY    ', 230.0000,1,   3,  11,   1,1.08000, 122.7141,1.10000,0.90000,1.10000,0.90000
  4010,'CELILO      ', 230.0000,1,   3,  11,   1,1.08007, 122.4865,1.10000,0.90000,1.10000,0.90000
  4031,'MALIN       ',  20.0000,2,   3,  11,   1,1.09956, 106.7469,1.10000,0.90000,1.10000,0.90000
  4035,'JOHN DAY    ',  20.0000,2,   3,  11,   1,1.07205, 125.9891,1.10000,0.90000,1.10000,0.90000
  4039,'DALLES21    ',  20.0000,2,   3,  13,   1,1.07689, 123.2068,1.10000,0.90000,1.10000,0.90000
  4090,'MALIN1      ', 500.0000,1,   3,  11,   1,1.12982, 108.9318,1.10000,0.90000,1.10000,0.90000
  4091,'GRIZZLY1    ', 500.0000,1,   3,  11,   1,1.11830, 112.6851,1.10000,0.90000,1.10000,0.90000
  4092,'GRIZZLY2    ', 500.0000,1,   3,  11,   1,1.10884, 108.7261,1.10000,0.90000,1.10000,0.90000
  4093,'GRIZZLY3    ', 500.0000,1,   3,  11,   1,1.11065, 107.9020,1.10000,0.90000,1.10000,0.90000
  4094,'GRIZZLY4    ', 500.0000,1,   3,  11,   1,1.10274, 114.2584,1.10000,0.90000,1.10000,0.90000
  4095,'GRIZZLY5    ', 500.0000,1,   3,  11,   1,1.10864, 108.3652,1.10000,0.90000,1.10000,0.90000
  4096,'GRIZZLY6    ', 500.0000,1,   3,  11,   1,1.11058, 107.4949,1.10000,0.90000,1.10000,0.90000
  4097,'GRIZZLY7    ', 500.0000,1,   3,  11,   1,1.10231, 114.2099,1.10000,0.90000,1.10000,0.90000
  4101,'COULEE      ', 500.0000,1,   3,  13,   1,1.12800, 139.8523,1.10000,0.90000,1.10000,0.90000
  4102,'HANFORD     ', 500.0000,1,   3,  13,   1,1.09600, 133.4127,1.10000,0.90000,1.10000,0.90000
  4103,'BELL        ', 500.0000,1,   3,  13,   1,1.14644, 129.4151,1.10000,0.90000,1.10000,0.90000
  4104,'BELL        ', 230.0000,1,   3,  13,   1,1.13457, 122.4872,1.10000,0.90000,1.10000,0.90000
  4131,'COULEE      ',  20.0000,2,   3,  13,   1,1.12671, 141.1798,1.10000,0.90000,1.10000,0.90000
  4132,'HANFORD     ',  20.0000,2,   3,  13,   1,1.09069, 134.6899,1.10000,0.90000,1.10000,0.90000
  4201,'NORTH       ', 500.0000,1,   3,  13,   1,1.12000, 135.4448,1.10000,0.90000,1.10000,0.90000
  4202,'WCASCADE    ', 500.0000,1,   3,  13,   1,1.09106, 121.9122,1.10000,0.90000,1.10000,0.90000
  4203,'WILLAMET    ', 500.0000,1,   3,  13,   1,1.06905, 117.6899,1.10000,0.90000,1.10000,0.90000
  4204,'MERIDIAN    ', 500.0000,1,   3,  13,   1,1.09708, 107.6820,1.10000,0.90000,1.10000,0.90000
  4231,'NORTH G3    ',  20.0000,2,   3,  13,   1,1.12256, 135.9403,1.10000,0.90000,1.10000,0.90000
  4232,'WCASCADE    ',  20.0000,2,   3,  13,   1,1.09258, 121.9631,1.10000,0.90000,1.10000,0.90000
  5001,'CANADA      ', 500.0000,1,   3,   4,   1,1.05000, 152.4389,1.10000,0.90000,1.10000,0.90000
  5002,'CANALB      ', 500.0000,1,   3,   1,   1,1.05500, 149.2126,1.10000,0.90000,1.10000,0.90000
  5003,'CA230TO     ', 230.0000,1,   3,   1,   1,1.06559, 145.5738,1.10000,0.90000,1.10000,0.90000
  5004,'CA230       ', 230.0000,1,   3,   4,   1,1.11349, 133.6163,1.10000,0.90000,1.10000,0.90000
  5031,'CANAD G1    ',  20.0000,2,   3,   4,   1,1.04063, 154.3763,1.10000,0.90000,1.10000,0.90000
  5032,'CMAIN GM    ',  20.0000,2,   3,   1,   1,1.05219, 150.8292,1.10000,0.90000,1.10000,0.90000
  6101,'MIDPOINT    ', 500.0000,1,   3,   6,   1,1.08438, 104.9335,1.10000,0.90000,1.10000,0.90000
  6102,'MIDPOINT    ', 345.0000,1,   3,   6,   1,1.04353, 104.1825,1.10000,0.90000,1.10000,0.90000
  6103,'BORAH       ', 345.0000,1,   3,   6,   1,1.04255, 102.9031,1.10000,0.90000,1.10000,0.90000
...
0 / END OF BUS DATA, BEGIN LOAD DATA
@!   I,'ID',STAT,AREA,ZONE,      PL,        QL,        IP,        IQ,        YP,        YQ, OWNER,SCALE,INTRPT,  DGENP,     DGENQ, DGENF
  1002,'1 ',   1,   1,   3,    92.847,   242.191,     0.000,     0.000,     0.000,     0.000,   1,    1,  0,     0.000,     0.000,   0
  1003,'1 ',   1,   1,  10,   918.327,  -160.764,     0.000,     0.000,     0.000,     0.000,   1,    1,  0,     0.000,     0.000,   0
  1004,'1 ',   1,   1,  10,   418.236,    -2.160,     0.000,     0.000,     0.000,     0.000,   1,    1,  0,     0.000,     0.000,   0
  1101,'1 ',   1,   1,   3,  1860.400,    55.757,     0.000,     0.000,     0.000,     0.000,   1,    1,  0,     0.000,     0.000,   0
  1102,'1 ',   1,   1,   3,    74.653,    -9.922,     0.000,     0.000,     0.000,     0.000,   1,    1,  0,     0.000,     0.000,   0
  1201,'1 ',   1,   1,   3,    63.908,     0.710,     0.000,     0.000,     0.000,     0.000,   1,    1,  0,     0.000,     0.000,   0
  1202,'1 ',   1,   1,   3,   336.488,  -102.168,     0.000,     0.000,     0.000,     0.000,   1,    1,  0,     0.000,     0.000,   0
  1301,'1 ',   1,   1,   3,  1074.230,  -134.094,     0.000,     0.000,     0.000,     0.000,   1,    1,  0,     0.000,     0.000,   0
  1302,'1 ',   1,   1,   9,     7.092,    -0.906,     0.000,     0.000,     0.000,     0.000,   1,    1,  0,     0.000,     0.000,   0
  1303,'1 ',   1,   1,   9,  2574.909,  -334.216,     0.000,     0.000,     0.000,     0.000,   1,    1,  0,     0.000,     0.000,   0
  1401,'1 ',   1,   1,   3,  2620.734,  -590.685,     0.000,     0.000,     0.000,     0.000,   1,    1,  0,     0.000,     0.000,   0
  1402,'1 ',   1,   1,   3,  2105.958,   222.681,     0.000,     0.000,     0.000,     0.000,   1,    1,  0,     0.000,     0.000,   0
  2000,'1 ',   1,   4,   7,   936.000,  -122.096,     0.000,     0.000,     0.000,     0.000,   1,    1,  0,     0.000,     0.000,   0
  2100,'1 ',   1,   2,   2,   262.801,   -49.518,     0.000,     0.000,     0.000,     0.000,   1,    1,  0,     0.000,     0.000,   0
  2202,'1 ',   1,   2,   2,   878.965,  -155.176,     0.000,     0.000,     0.000,     0.000,   1,    1,  0,     0.000,     0.000,   0
  2203,'1 ',   1,   2,   2,   951.130,  -154.140,     0.000,     0.000,     0.000,     0.000,   1,    1,  0,     0.000,     0.000,   0
  2400,'1 ',   1,   2,   2,   429.930,   -38.191,     0.000,     0.000,     0.000,     0.000,   1,    1,  0,     0.000,     0.000,   0
  2401,'1 ',   1,   2,   2,   438.598,   -49.824,     0.000,     0.000,     0.000,     0.000,   1,    1,  0,     0.000,     0.000,   0
  2402,'1 ',   1,   2,   2,   547.371,   -40.358,     0.000,     0.000,     0.000,     0.000,   1,    1,  0,     0.000,     0.000,   0
  2403,'1 ',   1,   2,   2,   536.197,   -19.264,     0.000,     0.000,     0.000,     0.000,   1,    1,  0,     0.000,     0.000,   0
  2405,'1 ',   1,   2,   2,   425.712,   -11.696,     0.000,     0.000,     0.000,     0.000,   1,    1,  0,     0.000,     0.000,   0
  2406,'1 ',   1,   2,   2,   382.165,    20.978,     0.000,     0.000,     0.000,     0.000,   1,    1,  0,     0.000,     0.000,   0
  2407,'1 ',   1,   2,   2,   933.605,    20.328,     0.000,     0.000,     0.000,     0.000,   1,    1,  0,     0.000,     0.000,   0
  2408,'1 ',   1,   2,   2,   901.451,    37.218,     0.000,     0.000,     0.000,     0.000,   1,    1,  0,     0.000,     0.000,   0
  2409,'1 ',   1,   2,   2,   819.349,    43.478,     0.000,     0.000,     0.000,     0.000,   1,    1,  0,     0.000,     0.000,   0
  2410,'1 ',   1,   2,   2,   818.261,   -30.031,     0.000,     0.000,     0.000,     0.000,   1,    1,  0,     0.000,     0.000,   0
  2411,'1 ',   1,   2,   2,   556.229,   -38.075,     0.000,     0.000,     0.000,     0.000,   1,    1,  0,     0.000,     0.000,   0
  2502,'1 ',   1,   2,   2,  1563.363,    59.384,     0.000,     0.000,     0.000,     0.000,   1,    1,  0,     0.000,     0.000,   0
  2503,'1 ',   1,   2,   2,  1232.899,  -133.707,     0.000,     0.000,     0.000,     0.000,   1,    1,  0,     0.000,     0.000,   0
  2600,'1 ',   1,   2,   2,  -948.985,     0.000,     0.000,     0.000,     0.000,     0.000,   1,    1,  0,     0.000,     0.000,   0
  2602,'1 ',   1,   2,   2,    73.011,    -9.334,     0.000,     0.000,     0.000,     0.000,   1,    1,  0,     0.000,     0.000,   0
  2604,'1 ',   1,   2,   2,  1068.682,     0.000,     0.000,     0.000,     0.000,     0.000,   1,    1,  0,     0.000,     0.000,   0
  2608,'1 ',   1,   2,   2,    73.427,    -9.440,     0.000,     0.000,     0.000,     0.000,   1,    1,  0,     0.000,     0.000,   0
  2609,'1 ',   1,   2,   2,   100.753,   -20.178,     0.000,     0.000,     0.000,     0.000,   1,    1,  0,     0.000,     0.000,   0
  2610,'1 ',   1,   2,   2,    74.231,    -9.648,     0.000,     0.000,     0.000,     0.000,   1,    1,  0,     0.000,     0.000,   0
  2611,'1 ',   1,   2,   2,    73.427,    -9.440,     0.000,     0.000,     0.000,     0.000,   1,    1,  0,     0.000,     0.000,   0
  2612,'1 ',   1,   2,   2,    88.973,   -18.136,     0.000,     0.000,     0.000,     0.000,   1,    1,  0,     0.000,     0.000,   0
  2613,'1 ',   1,   2,   2,   239.996,   -49.056,     0.000,     0.000,     0.000,     0.000,   1,    1,  0,     0.000,     0.000,   0
  2614,'1 ',   1,   2,   2,   102.723,   -20.816,     0.000,     0.000,     0.000,     0.000,   1,    1,  0,     0.000,     0.000,   0
  2615,'1 ',   1,   2,   2,   599.442,   -97.603,     0.000,     0.000,     0.000,     0.000,   1,    1,  0,     0.000,     0.000,   0
  2616,'1 ',   1,   2,   2,    87.574,   -18.041,     0.000,     0.000,     0.000,     0.000,   1,    1,  0,     0.000,     0.000,   0
  2617,'1 ',   1,   2,   2,    90.479,   -18.755,     0.000,     0.000,     0.000,     0.000,   1,    1,  0,     0.000,     0.000,   0
  2618,'1 ',   1,   2,   2,   654.537,     4.522,     0.000,     0.000,     0.000,     0.000,   1,    1,  0,     0.000,     0.000,   0
  2619,'1 ',   1,   2,   2, -1470.713,     0.000,     0.000,     0.000,     0.000,     0.000,   1,    1,  0,     0.000,     0.000,   0
  2620,'1 ',   1,   2,   2,   151.606,   -12.890,     0.000,     0.000,     0.000,     0.000,   1,    1,  0,     0.000,     0.000,   0
  2621,'1 ',   1,   2,   2,   174.677,    45.987,     0.000,     0.000,     0.000,     0.000,   1,    1,  0,     0.000,     0.000,   0
  3101,'1 ',   1,   2,   2,   176.991,   -27.966,     0.000,     0.000,     0.000,     0.000,   1,    1,  0,     0.000,     0.000,   0
  3102,'1 ',   1,   2,   2,    82.250,   -13.056,     0.000,     0.000,     0.000,     0.000,   1,    1,  0,     0.000,     0.000,   0
  3103,'1 ',   1,   2,   2,   276.799,   -39.721,     0.000,     0.000,     0.000,     0.000,   1,    1,  0,     0.000,     0.000,   0
  3104,'1 ',   1,   2,   2,   160.020,   -21.055,     0.000,     0.000,     0.000,     0.000,   1,    1,  0,     0.000,     0.000,   0
  3105,'1 ',   1,   2,   2,   121.560,   -24.937,     0.000,     0.000,     0.000,     0.000,   1,    1,  0,     0.000,     0.000,   0
  3201,'1 ',   1,   2,   2,   303.544,   -64.369,     0.000,     0.000,     0.000,     0.000,   1,    1,  0,     0.000,     0.000,   0
  3202,'1 ',   1,   2,   2,   384.867,   -54.949,     0.000,     0.000,     0.000,     0.000,   1,    1,  0,     0.000,     0.000,   0
  3203,'1 ',   1,   2,   2,   431.144,  -104.182,     0.000,     0.000,     0.000,     0.000,   1,    1,  0,     0.000,     0.000,   0
  3204,'1 ',   1,   2,   2,   433.622,   -61.186,     0.000,     0.000,     0.000,     0.000,   1,    1,  0,     0.000,     0.000,   0
  3205,'1 ',   1,   2,   2,   358.133,   -51.090,     0.000,     0.000,     0.000,     0.000,   1,    1,  0,     0.000,     0.000,   0
  3302,'1 ',   1,   2,   2,   230.201,   -58.217,     0.000,     0.000,     0.000,     0.000,   1,    1,  0,     0.000,     0.000,   0
  3303,'1 ',   1,   2,   2,   409.553,   -98.696,     0.000,     0.000,     0.000,     0.000,   1,    1,  0,     0.000,     0.000,   0
  3304,'1 ',   1,   2,   2,   353.459,   -82.194,     0.000,     0.000,     0.000,     0.000,   1,    1,  0,     0.000,     0.000,   0
  3305,'1 ',   1,   2,   2,   283.544,   -40.592,     0.000,     0.000,     0.000,     0.000,   1,    1,  0,     0.000,     0.000,   0
  3401,'1 ',   1,   2,   2,   301.842,   -76.681,     0.000,     0.000,     0.000,     0.000,   1,    1,  0,     0.000,     0.000,   0
  3403,'1 ',   1,   2,   2,   267.873,   -38.202,     0.000,     0.000,     0.000,     0.000,   1,    1,  0,     0.000,     0.000,   0
  3404,'1 ',   1,   2,   2,   230.954,   -33.174,     0.000,     0.000,     0.000,     0.000,   1,    1,  0,     0.000,     0.000,   0
  3405,'1 ',   1,   2,   2,   244.022,   -36.271,     0.000,     0.000,     0.000,     0.000,   1,    1,  0,     0.000,     0.000,   0
  3501,'1 ',   1,   2,   2,   351.800,   -50.103,     0.000,     0.000,     0.000,     0.000,   1,    1,  0,     0.000,     0.000,   0
  3601,'1 ',   1,   2,   2,    88.078,   -12.285,     0.000,     0.000,     0.000,     0.000,   1,    1,  0,     0.000,     0.000,   0
  3701,'1 ',   1,   1,   9,   189.500,    -9.472,     0.000,     0.000,     0.000,     0.000,   1,    1,  0,     0.000,     0.000,   0
  3801,'1 ',   1,   2,   2,   146.519,   -34.630,     0.000,     0.000,     0.000,     0.000,   1,    1,  0,     0.000,     0.000,   0
  3804,'1 ',   1,   2,   2,   180.243,   -44.705,     0.000,     0.000,     0.000,     0.000,   1,    1,  0,     0.000,     0.000,   0
  3805,'1 ',   1,   2,   2,   387.816,  -122.382,     0.000,     0.000,     0.000,     0.000,   1,    1,  0,     0.000,     0.000,   0
  3806,'1 ',   1,   2,   2,   228.418,   -32.020,     0.000,     0.000,     0.000,     0.000,   1,    1,  0,     0.000,     0.000,   0
  3902,'1 ',   1,   2,   2,    77.205,   -19.301,     0.000,     0.000,     0.000,     0.000,   1,    1,  0,     0.000,     0.000,   0
  3903,'1 ',   1,   2,   2,   106.952,   -15.088,     0.000,     0.000,     0.000,     0.000,   1,    1,  0,     0.000,     0.000,   0
  3907,'1 ',   1,   2,   2,   241.318,   -34.194,     0.000,     0.000,     0.000,     0.000,   1,    1,  0,     0.000,     0.000,   0
  3908,'1 ',   1,   2,   2,   104.779,   -13.405,     0.000,     0.000,     0.000,     0.000,   1,    1,  0,     0.000,     0.000,   0
  3909,'1 ',   1,   2,   2,    89.370,   -21.545,     0.000,     0.000,     0.000,     0.000,   1,    1,  0,     0.000,     0.000,   0
  3910,'1 ',   1,   2,   2,   128.087,   -19.144,     0.000,     0.000,     0.000,     0.000,   1,    1,  0,     0.000,     0.000,   0
  3911,'1 ',   1,   2,   2,   114.591,   -22.556,     0.000,     0.000,     0.000,     0.000,   1,    1,  0,     0.000,     0.000,   0
  3912,'1 ',   1,   2,   2,    87.986,     0.319,     0.000,     0.000,     0.000,     0.000,   1,    1,  0,     0.000,     0.000,   0
  3913,'1 ',   1,   2,   2,   168.775,   -22.575,     0.000,     0.000,     0.000,     0.000,   1,    1,  0,     0.000,     0.000,   0
  3914,'1 ',   1,   2,   2,   116.204,   -27.108,     0.000,     0.000,     0.000,     0.000,   1,    1,  0,     0.000,     0.000,   0
  3915,'1 ',   1,   2,   2,   129.439,   -27.383,     0.000,     0.000,     0.000,     0.000,   1,    1,  0,     0.000,     0.000,   0
  3916,'1 ',   1,   2,   2,    78.368,     0.000,     0.000,     0.000,     0.000,     0.000,   1,    1,  0,     0.000,     0.000,   0
  3917,'1 ',   1,   2,   2,   120.080,   -22.158,     0.000,     0.000,     0.000,     0.000,   1,    1,  0,     0.000,     0.000,   0
  3918,'1 ',   1,   2,   2,   162.350,   -38.665,     0.000,     0.000,     0.000,     0.000,   1,    1,  0,     0.000,     0.000,   0
  3919,'1 ',   1,   2,   2,    96.257,   -12.994,     0.000,     0.000,     0.000,     0.000,   1,    1,  0,     0.000,     0.000,   0
  3920,'1 ',   1,   2,   2,    89.055,   -12.505,     0.000,     0.000,     0.000,     0.000,   1,    1,  0,     0.000,     0.000,   0
  3921,'1 ',   1,   2,   2,    71.164,   -15.348,     0.000,     0.000,     0.000,     0.000,   1,    1,  0,     0.000,     0.000,   0
  3922,'1 ',   1,   2,   2,   129.980,   -16.636,     0.000,     0.000,     0.000,     0.000,   1,    1,  0,     0.000,     0.000,   0
  3923,'1 ',   1,   2,   2,   198.183,   -32.756,     0.000,     0.000,     0.000,     0.000,   1,    1,  0,     0.000,     0.000,   0
  3924,'1 ',   1,   2,   2,   168.295,   -23.946,     0.000,     0.000,     0.000,     0.000,   1,    1,  0,     0.000,     0.000,   0
  3926,'1 ',   1,   2,   2,   136.933,    -8.665,     0.000,     0.000,     0.000,     0.000,   1,    1,  0,     0.000,     0.000,   0
  4002,'1 ',   1,   3,  11,   118.853,   -14.197,     0.000,     0.000,     0.000,     0.000,   1,    1,  0,     0.000,     0.000,   0
  4004,'1 ',   1,   3,  11,   190.913,   -22.864,     0.000,     0.000,     0.000,     0.000,   1,    1,  0,     0.000,     0.000,   0
  4005,'1 ',   1,   3,  11,   341.971,  -103.819,     0.000,     0.000,     0.000,     0.000,   1,    1,  0,     0.000,     0.000,   0
  4008,'1 ',   1,   3,  11,   203.935,   -24.735,     0.000,     0.000,     0.000,     0.000,   1,    1,  0,     0.000,     0.000,   0
  4009,'1 ',   1,   3,  11,  1573.222,  -284.509,     0.000,     0.000,     0.000,     0.000,   1,    1,  0,     0.000,     0.000,   0
  4010,'1 ',   1,   3,  11,  1558.741,     0.000,     0.000,     0.000,     0.000,     0.000,   1,    1,  0,     0.000,     0.000,   0
  4101,'1 ',   1,   3,  13,   678.570,   -78.464,     0.000,     0.000,     0.000,     0.000,   1,    1,  0,     0.000,     0.000,   0
  4102,'1 ',   1,   3,  13,   337.354,   -43.972,     0.000,     0.000,     0.000,     0.000,   1,    1,  0,     0.000,     0.000,   0
  4103,'1 ',   1,   3,  13,     8.312,    -1.002,     0.000,     0.000,     0.000,     0.000,   1,    1,  0,     0.000,     0.000,   0
  4104,'1 ',   1,   3,  13,  1865.426,  -233.444,     0.000,     0.000,     0.000,     0.000,   1,    1,  0,     0.000,     0.000,   0
  4201,'1 ',   1,   3,  13,  3957.980,  -282.713,     0.000,     0.000,     0.000,     0.000,   1,    1,  0,     0.000,     0.000,   0
  4202,'1 ',   1,   3,  13,  3307.958,  -407.100,     0.000,     0.000,     0.000,     0.000,   1,    1,  0,     0.000,     0.000,   0
  4203,'1 ',   1,   3,  13,  3314.269,  -425.324,     0.000,     0.000,     0.000,     0.000,   1,    1,  0,     0.000,     0.000,   0
  4204,'1 ',   1,   3,  13,   730.504,   -89.196,     0.000,     0.000,     0.000,     0.000,   1,    1,  0,     0.000,     0.000,   0
  5001,'1 ',   1,   3,   4,  4984.641, -1078.927,     0.000,     0.000,     0.000,     0.000,   1,    1,  0,     0.000,     0.000,   0
  5002,'1 ',   1,   3,   1,  6221.995,  -769.207,     0.000,     0.000,     0.000,     0.000,   1,    1,  0,     0.000,     0.000,   0
  5003,'1 ',   1,   3,   1,   407.197,   -50.876,     0.000,     0.000,     0.000,     0.000,   1,    1,  0,     0.000,     0.000,   0
  6102,'1 ',   1,   3,   6,   586.782,   186.776,     0.000,     0.000,     0.000,     0.000,   1,    1,  0,     0.000,     0.000,   0
  6103,'1 ',   1,   3,   6,   221.781,   -28.524,     0.000,     0.000,     0.000,     0.000,   1,    1,  0,     0.000,     0.000,   0
  6104,'1 ',   1,   3,   6,   966.224,  -125.190,     0.000,     0.000,     0.000,     0.000,   1,    1,  0,     0.000,     0.000,   0
  6201,'1 ',   1,   3,   8,    78.323,    -9.642,     0.000,     0.000,     0.000,     0.000,   1,    1,  0,     0.000,     0.000,   0
  6202,'1 ',   1,   3,   8,    32.802,    -4.584,     0.000,     0.000,     0.000,     0.000,   1,    1,  0,     0.000,     0.000,   0
  6203,'1 ',   1,   3,   8,   245.754,   -57.935,     0.000,     0.000,     0.000,     0.000,   1,    1,  0,     0.000,     0.000,   0
  6204,'1 ',   1,   3,   8,   269.274,   -57.513,     0.000,     0.000,     0.000,     0.000,   1,    1,  0,     0.000,     0.000,   0
  6205,'1 ',   1,   3,   8,   187.967,   -31.591,     0.000,     0.000,     0.000,     0.000,   1,    1,  0,     0.000,     0.000,   0
  6301,'1 ',   1,   3,  14,   205.177,   -26.365,     0.000,     0.000,     0.000,     0.000,   1,    1,  0,     0.000,     0.000,   0
  6302,'1 ',   1,   3,  14,   237.354,   -30.791,     0.000,     0.000,     0.000,     0.000,   1,    1,  0,     0.000,     0.000,   0
  6303,'1 ',   1,   3,  14,   292.389,   -37.035,     0.000,     0.000,     0.000,     0.000,   1,    1,  0,     0.000,     0.000,   0
  6305,'1 ',   1,   3,  14,    22.921,    -7.091,     0.000,     0.000,     0.000,     0.000,   1,    1,  0,     0.000,     0.000,   0
  6401,'1 ',   1,   1,   9,   895.751,  -113.771,     0.000,     0.000,     0.000,     0.000,   1,    1,  0,     0.000,     0.000,   0
  6402,'1 ',   1,   1,   9,   148.993,   -19.327,     0.000,     0.000,     0.000,     0.000,   1,    1,  0,     0.000,     0.000,   0
  6403,'1 ',   1,   1,   9,     1.089,    -0.122,     0.000,     0.000,     0.000,     0.000,   1,    1,  0,     0.000,     0.000,   0
  6404,'1 ',   1,   1,   9,    15.126,    -1.870,     0.000,     0.000,     0.000,     0.000,   1,    1,  0,     0.000,     0.000,   0
  6501,'1 ',   1,   3,  12,    77.865,   -25.207,     0.000,     0.000,     0.000,     0.000,   1,    1,  0,     0.000,     0.000,   0
  6502,'1 ',   1,   3,  12,   620.927,  -109.678,     0.000,     0.000,     0.000,     0.000,   1,    1,  0,     0.000,     0.000,   0
  6503,'1 ',   1,   3,  12,   167.090,   -51.427,     0.000,     0.000,     0.000,     0.000,   1,    1,  0,     0.000,     0.000,   0
  6504,'1 ',   1,   3,  12,   118.482,   -15.284,     0.000,     0.000,     0.000,     0.000,   1,    1,  0,     0.000,     0.000,   0
  6505,'1 ',   1,   3,  12,     2.644,    -0.837,     0.000,     0.000,     0.000,     0.000,   1,    1,  0,     0.000,     0.000,   0
  6507,'1 ',   1,   3,  12,   212.916,    23.579,     0.000,     0.000,     0.000,     0.000,   1,    1,  0,     0.000,     0.000,   0
  6508,'1 ',   1,   3,  12,    52.032,   -16.686,     0.000,     0.000,     0.000,     0.000,   1,    1,  0,     0.000,     0.000,   0
  6509,'1 ',   1,   3,  12,     3.427,    -1.110,     0.000,     0.000,     0.000,     0.000,   1,    1,  0,     0.000,     0.000,   0
  6510,'1 ',   1,   3,  12,   795.425,    45.134,     0.000,     0.000,     0.000,     0.000,   1,    1,  0,     0.000,     0.000,   0
  7001,'1 ',   1,   3,   5,  2768.629,  -299.450,     0.000,     0.000,     0.000,     0.000,   1,    1,  0,     0.000,     0.000,   0
  7002,'1 ',   1,   3,   5,  1015.329,    54.060,     0.000,     0.000,     0.000,     0.000,   1,    1,  0,     0.000,     0.000,   0
  8003,'1 ',   1,   2,   2,   160.061,   -19.423,     0.000,     0.000,     0.000,     0.000,   1,    1,  0,     0.000,     0.000,   0
  8004,'1 ',   1,   2,   2,   998.613,  -130.264,     0.000,     0.000,     0.000,     0.000,   1,    1,  0,     0.000,     0.000,   0
  8005,'1 ',   1,   2,   2,   355.383,   -47.304,     0.000,     0.000,     0.000,     0.000,   1,    1,  0,     0.000,     0.000,   0
0 / END OF LOAD DATA, BEGIN FIXED SHUNT DATA
@!   I,'ID',STATUS,  GL,        BL
0 / END OF FIXED SHUNT DATA, BEGIN GENERATOR DATA
@!   I,'ID',      PG,        QG,        QT,        QB,     VS,    IREG,     MBASE,     ZR,         ZX,         RT,         XT,     GTAP,STAT, RMPCT,      PT,        PB,    O1,    F1,  O2,    F2,  O3,    F3,  O4,    F4,WMOD, WPF,NREG
  1032,'C ',   873.000,   200.000,   200.000,  -200.000,1.01400,  1002,   895.617, 0.00000E+0, 2.00000E-1, 0.00000E+0, 0.00000E+0,1.00000,1,  100.0,   873.000,     0.000,   1,1.0000
  1032,'G ',     0.000,   344.074,   357.000,  -357.000,1.01400,  1002,  1109.031, 0.00000E+0, 2.00000E-1, 0.00000E+0, 0.00000E+0,1.00000,0,  100.0,  1050.000,     0.000,   1,1.0000
  1032,'S ',     0.000,   209.017,   255.200,  -255.200,1.01400,  1002,   687.147, 0.00000E+0, 2.00000E-1, 0.00000E+0, 0.00000E+0,1.00000,0,  100.0,   638.000,     0.000,   1,1.0000,   0,   1.0,   0,   1.0,   0,   1.0, 1, 1.0000
  1034,'C ',  1944.000,   500.000,   500.000,  -500.000,1.03000,  1004,  2007.271, 0.00000E+0, 2.00000E-1, 0.00000E+0, 0.00000E+0,1.00000,1,  100.0,  1944.000,     0.000,   1,1.0000
  1034,'G ',     0.000,   168.193,   918.000,  -918.000,1.03000,  1004,  2851.793, 0.00000E+0, 2.00000E-1, 0.00000E+0, 0.00000E+0,1.00000,0,  100.0,  2700.000,     0.000,   1,1.0000
  1034,'W ',   729.108,   639.118,   672.800,  -672.800,1.03000,  1004,  1811.569, 0.00000E+0, 2.00000E-1, 0.00000E+0, 0.00000E+0,1.00000,1,  100.0,  1682.000,     0.000,   1,1.0000,   0,   1.0,   0,   1.0,   0,   1.0, 1, 1.0000
  1131,'C ',  1268.000,   293.940,   308.000,  -308.000,1.01000,  1101,  1304.871, 0.00000E+0, 2.00000E-1, 0.00000E+0, 0.00000E+0,1.00000,1,  100.0,  1268.000,     0.000,   1,1.0000
  1131,'G ',     0.000,   121.365,  1916.000, -1916.000,1.01000,  1101,  5292.958, 0.00000E+0, 2.00000E-1, 0.00000E+0, 0.00000E+0,1.00000,0,  100.0,  4934.000,     0.000,   1,1.0000
  1232,'C ',  -119.213,   -18.239,  1208.000, -1208.000,1.08000,  1202,  5121.503, 0.00000E+0, 2.00000E-1, 0.00000E+0, 0.00000E+0,1.00000,1,  100.0,  4977.000,     0.000,   1,1.0000
  1232,'H ',   -35.433,    -5.421,   479.600,  -479.600,1.08000,  1202,  1291.363, 0.00000E+0, 2.00000E-1, 0.00000E+0, 0.00000E+0,1.00000,1,  100.0,  1199.000,     0.000,   1,1.0000
  1331,'G ',     0.000,    37.119,   841.000,  -841.000,1.04500,  1301,  2324.472, 0.00000E+0, 2.00000E-1, 0.00000E+0, 0.00000E+0,1.00000,0,  100.0,  2167.000,     0.000,   1,1.0000
  1331,'H ',   824.550,   931.200,   931.200,  -931.200,1.04500,  1301,  2507.333, 0.00000E+0, 2.00000E-1, 0.00000E+0, 0.00000E+0,1.00000,1,  100.0,  2328.000,     0.000,   1,1.0000
  1333,'C ',   418.000,     1.717,   167.200,  -167.200,1.00500,  1303,   450.200, 0.00000E+0, 2.00000E-1, 0.00000E+0, 0.00000E+0,1.00000,1,  100.0,   418.000,     0.000,   1,1.0000
  1333,'G ',  2208.407,     9.072,  2746.000, -2746.000,1.00500,  1303,  7529.584, 0.00000E+0, 2.00000E-1, 0.00000E+0, 0.00000E+0,1.00000,1,  100.0,  7011.000,     0.000,   1,1.0000
  1333,'S ',     0.000,   205.553,   969.200,  -969.200,1.00500,  1303,  2609.651, 0.00000E+0, 2.00000E-1, 0.00000E+0, 0.00000E+0,1.00000,0,  100.0,  2423.000,     0.000,   1,1.0000,   0,   1.0,   0,   1.0,   0,   1.0, 1, 1.0000
  1431,'G ',     0.000,   797.425,  3559.000, -3559.000,1.03500,  1401,  9836.432, 0.00000E+0, 2.00000E-1, 0.00000E+0, 0.00000E+0,1.00000,0,  100.0,  9170.000,     0.000,   1,1.0000
  1431,'N ',  3066.000,  1684.000,  1684.000, -1684.000,1.03500,  1401,  4534.309, 0.00000E+0, 2.00000E-1, 0.00000E+0, 0.00000E+0,1.00000,1,  100.0,  4210.000,     0.000,   1,1.0000
  1431,'S ',     0.000,   210.356,   967.600,  -967.600,1.03500,  1401,  2605.343, 0.00000E+0, 2.00000E-1, 0.00000E+0, 0.00000E+0,1.00000,0,  100.0,  2419.000,     0.000,   1,1.0000,   0,   1.0,   0,   1.0,   0,   1.0, 1, 1.0000
  2030,'E ',   520.000,   279.600,   279.600,  -279.600,1.00000,  2000,   752.846, 0.00000E+0, 2.00000E-1, 0.00000E+0, 0.00000E+0,1.00000,1,  100.0,   699.000,     0.000,   1,1.0000
  2030,'G ',     0.000,   235.477,   856.000,  -856.000,1.00000,  2000,  2304.851, 0.00000E+0, 2.00000E-1, 0.00000E+0, 0.00000E+0,1.00000,0,  100.0,  2140.000,     0.000,   1,1.0000
  2130,'E ',   407.000,   254.000,   254.000,  -254.000,1.03500,  2100,   868.952, 0.00000E+0, 2.00000E-1, 0.00000E+0, 0.00000E+0,1.00000,1,  100.0,   831.000,     0.000,   1,1.0000
  2130,'G ',     0.000,    54.601,   200.000,  -200.000,1.03500,  2100,   619.190, 0.00000E+0, 2.00000E-1, 0.00000E+0, 0.00000E+0,1.00000,0,  100.0,   586.000,     0.000,   1,1.0000
  2130,'H ',   266.458,   158.400,   158.400,  -158.400,1.03500,  2100,   426.505, 0.00000E+0, 2.00000E-1, 0.00000E+0, 0.00000E+0,1.00000,1,  100.0,   396.000,     0.000,   1,1.0000
  2130,'S ',     0.000,    10.677,    46.000,   -46.000,1.03500,  2100,   123.859, 0.00000E+0, 2.00000E-1, 0.00000E+0, 0.00000E+0,1.00000,0,  100.0,   115.000,     0.000,   1,1.0000,   0,   1.0,   0,   1.0,   0,   1.0, 1, 1.0000
  2233,'DG',     0.000,   136.789,   304.000,  -304.000,1.00500,  2203,  1078.722, 0.00000E+0, 2.00000E-1, 0.00000E+0, 0.00000E+0,1.00000,0,  100.0,  1035.000,     0.000,   1,1.0000
  2233,'EG',     0.000,   242.861,   611.000,  -611.000,1.00500,  2203,  1935.947, 0.00000E+0, 2.00000E-1, 0.00000E+0, 0.00000E+0,1.00000,0,  100.0,  1837.000,     0.000,   1,1.0000
  2233,'TG',     0.000,    96.952,   206.000,  -206.000,1.00500,  2203,   761.397, 0.00000E+0, 2.00000E-1, 0.00000E+0, 0.00000E+0,1.00000,0,  100.0,   733.000,     0.000,   1,1.0000
  2332,'S ',     0.000,   128.939,   533.200,  -533.200,1.03500,  2302,  1435.685, 0.00000E+0, 2.00000E-1, 0.00000E+0, 0.00000E+0,1.00000,0,  100.0,  1333.000,     0.000,   1,1.0000,   0,   1.0,   0,   1.0,   0,   1.0, 1, 1.0000
  2431,'S ',     0.000,   367.573,   666.400,  -666.400,1.05000,  2431,  1794.337, 0.00000E+0, 2.00000E-1, 0.00000E+0, 0.00000E+0,1.00000,0,  100.0,  1666.000,     0.000,   1,1.0000,   0,   1.0,   0,   1.0,   0,   1.0, 1, 1.0000
  2434,'S ',     0.000,  -213.713,   500.000,  -500.000,1.02000,  2434,  1570.707, 0.00000E+0, 2.00000E-1, 0.00000E+0, 0.00000E+0,1.00000,0,  100.0,  1489.000,     0.000,   1,1.0000,   0,   1.0,   0,   1.0,   0,   1.0, 1, 1.0000
  2438,'EG',   961.535,   728.000,   728.000,  -728.000,1.00900,  2408,  2404.838, 0.00000E+0, 2.00000E-1, 0.00000E+0, 0.00000E+0,1.00000,1,  100.0,  2292.000,     0.000,   1,1.0000
  2438,'ND',     0.000,     0.000,     0.500,    -0.500,1.00900,  2408,     0.500, 0.00000E+0, 2.00000E-1, 0.00000E+0, 0.00000E+0,1.00000,0,  100.0,     0.000, -1006.000,   1,1.0000
  2438,'RG',     0.000,    70.054,  1902.000, -1902.000,1.00900,  2408,  5773.301, 0.00000E+0, 2.00000E-1, 0.00000E+0, 0.00000E+0,1.00000,0,  100.0,  5451.000,     0.000,   1,1.0000
  2438,'S ',     0.000,    14.702,   458.400,  -458.400,1.00900,  2408,  1234.280, 0.00000E+0, 2.00000E-1, 0.00000E+0, 0.00000E+0,1.00000,0,  100.0,  1146.000,     0.000,   1,1.0000,   0,   1.0,   0,   1.0,   0,   1.0, 1, 1.0000
  2438,'SG',   918.480,  1644.000,  1644.000, -1644.000,1.00900,  2408,  4426.605, 0.00000E+0, 2.00000E-1, 0.00000E+0, 0.00000E+0,1.00000,1,  100.0,  4110.000,     0.000,   1,1.0000
  2438,'SH',   789.738,   584.000,   584.000,  -584.000,1.00900,  2408,  1572.468, 0.00000E+0, 2.00000E-1, 0.00000E+0, 0.00000E+0,1.00000,1,  100.0,  1460.000,     0.000,   1,1.0000
  2438,'SW',   107.364,   561.000,   561.000,  -561.000,1.00900,  2408,  3258.653, 0.00000E+0, 2.00000E-1, 0.00000E+0, 0.00000E+0,1.00000,1,  100.0,  3210.000,     0.000,   1,1.0000,   0,   1.0,   0,   1.0,   0,   1.0, 1, 1.0000
  2438,'WG',     0.000,    74.740,  1910.000, -1910.000,1.00900,  2408,  6122.547, 0.00000E+0, 2.00000E-1, 0.00000E+0, 0.00000E+0,1.00000,0,  100.0,  5817.000,     0.000,   1,1.0000
  2439,'S ',     0.000,  -206.012,   666.400,  -666.400,1.02000,  2409,  1794.337, 0.00000E+0, 2.00000E-1, 0.00000E+0, 0.00000E+0,1.00000,0,  100.0,  1666.000,     0.000,   1,1.0000,   0,   1.0,   0,   1.0,   0,   1.0, 1, 1.0000
  2533,'S ',     0.000,   224.930,   799.600,  -799.600,1.00900,  2503,  2152.989, 0.00000E+0, 2.00000E-1, 0.00000E+0, 0.00000E+0,1.00000,0,  100.0,  1999.000,     0.000,   1,1.0000,   0,   1.0,   0,   1.0,   0,   1.0, 1, 1.0000
  2630,'G ',     0.000,   203.269,  1346.000, -1346.000,1.00400,  2610,  4170.195, 0.00000E+0, 2.00000E-1, 0.00000E+0, 0.00000E+0,1.00000,0,  100.0,  3947.000,     0.000,   1,1.0000
  2631,'S ',     0.000,    72.187,   208.000,  -208.000,1.01500,  2611,   560.057, 0.00000E+0, 2.00000E-1, 0.00000E+0, 0.00000E+0,1.00000,0,  100.0,   520.000,     0.000,   1,1.0000,   0,   1.0,   0,   1.0,   0,   1.0, 1, 1.0000
  2634,'C ',   323.600,  -493.587,   647.200,  -647.200,1.03000,  2604,  1742.639, 0.00000E+0, 2.00000E-1, 0.00000E+0, 0.00000E+0,1.00000,1,  100.0,  1618.000,     0.000,   1,1.0000
  2637,'H ',    40.289,    34.800,    34.800,   -34.800,1.03000,  2612,    93.702, 0.00000E+0, 2.00000E-1, 0.00000E+0, 0.00000E+0,1.00000,1,  100.0,    87.000,     0.000,   1,1.0000
  2638,'H ',   188.480,   100.000,   100.000,  -100.000,1.01500,  2608,   419.105, 0.00000E+0, 2.00000E-1, 0.00000E+0, 0.00000E+0,1.00000,1,  100.0,   407.000,     0.000,   1,1.0000
  3133,'NG',     0.000,    24.800,    24.800,   -24.800,1.00000,  3103,    66.776, 0.00000E+0, 2.00000E-1, 0.00000E+0, 0.00000E+0,1.00000,0,  100.0,    62.000,     0.000,   1,1.0000
  3133,'SC',     0.000,     0.000,   500.000,  -500.000,1.00000,  3103,   500.000, 0.00000E+0, 2.00000E-1, 0.00000E+0, 0.00000E+0,1.00000,0,  100.0,     0.100,     0.000,   1,1.0000
  3135,'MG',   303.488,   -42.205,   216.400,  -216.400,1.00000,  3105,   582.675, 0.00000E+0, 2.00000E-1, 0.00000E+0, 0.00000E+0,1.00000,1,  100.0,   541.000,     0.000,   1,1.0000
  3135,'NG',     0.000,     6.381,    15.200,   -15.200,1.00000,  3105,    40.927, 0.00000E+0, 2.00000E-1, 0.00000E+0, 0.00000E+0,1.00000,0,  100.0,    38.000,     0.000,   1,1.0000
  3234,'DG',     0.000,    15.032,    70.800,   -70.800,1.01000,  3204,   190.635, 0.00000E+0, 2.00000E-1, 0.00000E+0, 0.00000E+0,1.00000,0,  100.0,   177.000,     0.000,   1,1.0000
  3234,'MG',   652.309,   151.817,  1244.000, -1244.000,1.01000,  3204,  4048.845, 0.00000E+0, 2.00000E-1, 0.00000E+0, 0.00000E+0,1.00000,1,  100.0,  3853.000,     0.000,   1,1.0000
  3234,'NG',     0.000,    87.878,   382.000,  -382.000,1.01000,  3204,  1105.121, 0.00000E+0, 2.00000E-1, 0.00000E+0, 0.00000E+0,1.00000,0,  100.0,  1037.000,     0.000,   1,1.0000
  3234,'NW',   577.292,   134.357,   150.000,  -150.000,1.01000,  3204,  1746.453, 0.00000E+0, 2.00000E-1, 0.00000E+0, 0.00000E+0,1.00000,1,  100.0,  1740.000,     0.000,   1,1.0000,   0,   1.0,   0,   1.0,   0,   1.0, 1, 1.0000
  3333,'CG',     0.000,   322.817,   398.000,  -398.000,1.00000,  3303,  1087.450, 0.00000E+0, 2.00000E-1, 0.00000E+0, 0.00000E+0,1.00000,0,  100.0,  1012.000,     0.000,   1,1.0000
  3333,'NG',     0.000,    99.448,   124.800,  -124.800,1.00000,  3303,   336.034, 0.00000E+0, 2.00000E-1, 0.00000E+0, 0.00000E+0,1.00000,0,  100.0,   312.000,     0.000,   1,1.0000
  3432,'NP',     0.000,     0.000,  1498.400, -1498.400,1.00000,  3402,  4034.565, 0.00000E+0, 2.00000E-1, 0.00000E+0, 0.00000E+0,1.00000,0,  100.0,  3746.000, -2841.000,   1,1.0000
  3433,'NG',     0.000,    33.395,   231.000,  -231.000,1.00000,  3403,   949.527, 0.00000E+0, 2.00000E-1, 0.00000E+0, 0.00000E+0,1.00000,0,  100.0,   921.000,     0.000,   1,1.0000
  3433,'S ',     0.000,    51.724,   570.400,  -570.400,1.00000,  3403,  1535.849, 0.00000E+0, 2.00000E-1, 0.00000E+0, 0.00000E+0,1.00000,0,  100.0,  1426.000,     0.000,   1,1.0000,   0,   1.0,   0,   1.0,   0,   1.0, 1, 1.0000
  3531,'CE',  1424.000,    39.962,   569.600,  -569.600,1.00000,  3501,  1533.695, 0.00000E+0, 2.00000E-1, 0.00000E+0, 0.00000E+0,1.00000,1,  100.0,  1424.000,     0.000,   1,1.0000
  3531,'NE',   498.005,    13.976,   213.200,  -213.200,1.00000,  3501,   574.059, 0.00000E+0, 2.00000E-1, 0.00000E+0, 0.00000E+0,1.00000,1,  100.0,   533.000,     0.000,   1,1.0000
  3531,'NH',    18.483,     0.519,     9.600,    -9.600,1.00000,  3501,    25.849, 0.00000E+0, 2.00000E-1, 0.00000E+0, 0.00000E+0,1.00000,1,  100.0,    24.000,     0.000,   1,1.0000
  3631,'NB',    70.460,   -20.000,    20.000,   -20.000,1.01500,  3601,    98.061, 0.00000E+0, 2.00000E-1, 0.00000E+0, 0.00000E+0,1.00000,1,  100.0,    96.000,     0.000,   1,1.0000
  3631,'NG',     0.000,   -11.445,    74.000,   -74.000,1.01500,  3601,   222.657, 0.00000E+0, 2.00000E-1, 0.00000E+0, 0.00000E+0,1.00000,0,  100.0,   210.000,     0.000,   1,1.0000
  3731,'NH',    55.849,   -97.200,    97.200,   -97.200,1.00000,  3701,   261.719, 0.00000E+0, 2.00000E-1, 0.00000E+0, 0.00000E+0,1.00000,1,  100.0,   243.000,     0.000,   1,1.0000
  3831,'NN',  2323.000,   929.200,   929.200,  -929.200,1.04900,  3801,  2501.948, 0.00000E+0, 2.00000E-1, 0.00000E+0, 0.00000E+0,1.00000,1,  100.0,  2323.000,     0.000,   1,1.0000
  3835,'ND',     0.000,     0.000,     0.500,    -0.500,1.03500,  3805,     0.500, 0.00000E+0, 2.00000E-1, 0.00000E+0, 0.00000E+0,1.00000,0,  100.0,     0.000,  -510.000,   1,1.0000
  3835,'NG',     0.000,    82.527,   662.000,  -662.000,1.03500,  3805,  2130.462, 0.00000E+0, 2.00000E-1, 0.00000E+0, 0.00000E+0,1.00000,0,  100.0,  2025.000,     0.000,   1,1.0000
  3835,'S ',     0.000,    54.057,   500.000,  -500.000,1.03500,  3805,  1423.688, 0.00000E+0, 2.00000E-1, 0.00000E+0, 0.00000E+0,1.00000,0,  100.0,  1333.000,     0.000,   1,1.0000,   0,   1.0,   0,   1.0,   0,   1.0, 1, 1.0000
  3836,'DG',  1351.997,   476.000,   476.000,  -476.000,1.01900,  3806,  1570.855, 0.00000E+0, 2.00000E-1, 0.00000E+0, 0.00000E+0,1.00000,1,  100.0,  1497.000,     0.000,   1,1.0000
  3931,'NB',   385.586,     7.290,   151.000,  -151.000,1.07000,  3921,   586.762, 0.00000E+0, 2.00000E-1, 0.00000E+0, 0.00000E+0,1.00000,1,  100.0,   567.000,     0.000,   1,1.0000
  3931,'NH',  1252.660,    23.684,  1150.000, -1150.000,1.07000,  3921,  3096.470, 0.00000E+0, 2.00000E-1, 0.00000E+0, 0.00000E+0,1.00000,1,  100.0,  2875.000,     0.000,   1,1.0000
  3932,'S ',     0.000,   -47.754,   570.400,  -570.400,1.00000,  3902,  1535.849, 0.00000E+0, 2.00000E-1, 0.00000E+0, 0.00000E+0,1.00000,0,  100.0,  1426.000,     0.000,   1,1.0000,   0,   1.0,   0,   1.0,   0,   1.0, 1, 1.0000
  3933,'CG',     0.000,    86.032,   346.000,  -346.000,1.02000,  3933,   931.633, 0.00000E+0, 2.00000E-1, 0.00000E+0, 0.00000E+0,1.00000,0,  100.0,   865.000,     0.000,   1,1.0000
  3933,'NB',   253.421,    77.000,    77.000,   -77.000,1.02000,  3933,   353.488, 0.00000E+0, 2.00000E-1, 0.00000E+0, 0.00000E+0,1.00000,1,  100.0,   345.000,     0.000,   1,1.0000
  3933,'ND',     0.000,     0.000,     0.500,    -0.500,1.02000,  3933,     0.500, 0.00000E+0, 2.00000E-1, 0.00000E+0, 0.00000E+0,1.00000,0,  100.0,     0.000,  -449.000,   1,1.0000
  3933,'NG',   338.853,   115.946,   500.000,  -500.000,1.02000,  3933,  1990.811, 0.00000E+0, 2.00000E-1, 0.00000E+0, 0.00000E+0,1.00000,1,  100.0,  1927.000,     0.000,   1,1.0000
  3933,'NH',  1554.552,   531.922,  1089.600, -1089.600,1.02000,  3933,  2933.838, 0.00000E+0, 2.00000E-1, 0.00000E+0, 0.00000E+0,1.00000,1,  100.0,  2724.000,     0.000,   1,1.0000
  3933,'NW',     5.340,     1.827,   200.000,  -200.000,1.02000,  3933,   766.551, 0.00000E+0, 2.00000E-1, 0.00000E+0, 0.00000E+0,1.00000,1,  100.0,   740.000,     0.000,   1,1.0000,   0,   1.0,   0,   1.0,   0,   1.0, 1, 1.0000
  3933,'S ',     0.000,   132.443,   533.200,  -533.200,1.02000,  3933,  1435.685, 0.00000E+0, 2.00000E-1, 0.00000E+0, 0.00000E+0,1.00000,0,  100.0,  1333.000,     0.000,   1,1.0000,   0,   1.0,   0,   1.0,   0,   1.0, 1, 1.0000
  4031,'G ',     0.000,   502.000,   502.000,  -502.000,1.08000,  4001,  2756.103, 0.00000E+0, 2.00000E-1, 0.00000E+0, 0.00000E+0,1.00000,0,  100.0,  2710.000,     0.000,   1,1.0000
  4031,'H ',   450.127,   380.800,   380.800,  -380.800,1.08000,  4001,  1025.335, 0.00000E+0, 2.00000E-1, 0.00000E+0, 0.00000E+0,1.00000,1,  100.0,   952.000,     0.000,   1,1.0000
  4031,'S ',     0.000,   109.387,   170.800,  -170.800,1.08000,  4001,   459.893, 0.00000E+0, 2.00000E-1, 0.00000E+0, 0.00000E+0,1.00000,0,  100.0,   427.000,     0.000,   1,1.0000,   0,   1.0,   0,   1.0,   0,   1.0, 1, 1.0000
  4031,'W ',    90.223,   240.000,   240.000,  -240.000,1.08000,  4001,   678.841, 0.00000E+0, 2.00000E-1, 0.00000E+0, 0.00000E+0,1.00000,1,  100.0,   635.000,     0.000,   1,1.0000,   0,   1.0,   0,   1.0,   0,   1.0, 1, 1.0000
  4035,'C ',   642.000,  -255.000,   255.000,  -255.000,1.08000,  4005,   690.789, 0.00000E+0, 2.00000E-1, 0.00000E+0, 0.00000E+0,1.00000,1,  100.0,   642.000,     0.000,   1,1.0000
  4035,'G ',     0.000,    19.364,   307.000,  -307.000,1.08000,  4005,  1684.216, 0.00000E+0, 2.00000E-1, 0.00000E+0, 0.00000E+0,1.00000,0,  100.0,  1656.000,     0.000,   1,1.0000
  4035,'H ',  2750.686, -1168.425,  1428.800, -1428.800,1.08000,  4005,  3847.162, 0.00000E+0, 2.00000E-1, 0.00000E+0, 0.00000E+0,1.00000,1,  100.0,  3572.000,     0.000,   1,1.0000
  4035,'W ',   264.675,  -112.427,   800.000,  -800.000,1.08000,  4005,  2699.275, 0.00000E+0, 2.00000E-1, 0.00000E+0, 0.00000E+0,1.00000,1,  100.0,  2578.000,     0.000,   1,1.0000,   0,   1.0,   0,   1.0,   0,   1.0, 1, 1.0000
  4039,'G ',     0.000,    31.097,    60.000,   -60.000,1.08000,  4009,   161.555, 0.00000E+0, 2.00000E-1, 0.00000E+0, 0.00000E+0,1.00000,0,  100.0,   150.000,     0.000,   1,1.0000
  4039,'H ',  1651.636,  -615.017,  1135.600, -1135.600,1.08000,  4009,  3057.697, 0.00000E+0, 2.00000E-1, 0.00000E+0, 0.00000E+0,1.00000,1,  100.0,  2839.000,     0.000,   1,1.0000
  4039,'W ',   348.364,  -129.720,   500.000,  -500.000,1.08000,  4009,  1383.510, 0.00000E+0, 2.00000E-1, 0.00000E+0, 0.00000E+0,1.00000,1,  100.0,  1290.000,     0.000,   1,1.0000,   0,   1.0,   0,   1.0,   0,   1.0, 1, 1.0000
  4131,'B ',   522.269,   -19.218,   150.000,  -150.000,1.12800,  4101,   726.651, 0.00000E+0, 2.00000E-1, 0.00000E+0, 0.00000E+0,1.00000,1,  100.0,   711.000,     0.000,   1,1.0000
  4131,'H ',  5365.949,  -197.454,  5045.200, -5045.200,1.12800,  4101, 13584.617, 0.00000E+0, 2.00000E-1, 0.00000E+0, 0.00000E+0,1.00000,1,  100.0, 12613.000,     0.000,   1,1.0000
  4131,'W ',     0.659,    -0.024,   120.000,  -120.000,1.12800,  4101,   799.062, 0.00000E+0, 2.00000E-1, 0.00000E+0, 0.00000E+0,1.00000,1,  100.0,   790.000,     0.000,   1,1.0000,   0,   1.0,   0,   1.0,   0,   1.0, 1, 1.0000
  4132,'G ',     0.000,   311.261,   868.000,  -868.000,1.09600,  4102,  2337.162, 0.00000E+0, 2.00000E-1, 0.00000E+0, 0.00000E+0,1.00000,0,  100.0,  2170.000,     0.000,   1,1.0000
  4132,'H ',  4227.743,  -932.214,  2215.600, -2215.600,1.09600,  4102,  5965.686, 0.00000E+0, 2.00000E-1, 0.00000E+0, 0.00000E+0,1.00000,1,  100.0,  5539.000,     0.000,   1,1.0000
  4132,'N ',  1080.000,  -231.000,   231.000,  -231.000,1.09600,  4102,  1222.031, 0.00000E+0, 2.00000E-1, 0.00000E+0, 0.00000E+0,1.00000,1,  100.0,  1200.000,     0.000,   1,1.0000
  4132,'W ',    21.490,    -4.739,   120.000,  -120.000,1.09600,  4102,   323.110, 0.00000E+0, 2.00000E-1, 0.00000E+0, 0.00000E+0,1.00000,1,  100.0,   300.000,     0.000,   1,1.0000,   0,   1.0,   0,   1.0,   0,   1.0, 1, 1.0000
  4231,'C ',   961.405,   255.836,   584.000,  -584.000,1.12000,  4201,  1572.468, 0.00000E+0, 2.00000E-1, 0.00000E+0, 0.00000E+0,1.00000,1,  100.0,  1460.000,     0.000,   1,1.0000
  4231,'G ',     0.000,   267.538,   388.000,  -388.000,1.12000,  4201,  1044.722, 0.00000E+0, 2.00000E-1, 0.00000E+0, 0.00000E+0,1.00000,0,  100.0,   970.000,     0.000,   1,1.0000
  4231,'H ',  1213.113,   322.818,  1406.800, -1406.800,1.12000,  4201,  3787.925, 0.00000E+0, 2.00000E-1, 0.00000E+0, 0.00000E+0,1.00000,1,  100.0,  3517.000,     0.000,   1,1.0000
...